*                                                                               
.LIB LIB                                                                        
* DATE: Jul 21/05                                                               
* LOT: LOT1                  WAF: WAFER01                                       
* DIE: DIE1                  DEV: Device1                                       
* Temp= 27                                                                      
* W=    1.0 L= 0.000001                                                         
.MODEL Device1 nmos (                              LEVEL   = 8                  
+TNOM    = 27             TOX     = 1E-8           XJ      = 1.5E-7             
+NCH     = 1.7E17         NSUB    = 6E16           VTH0    = 0.6008386          
+K1      = 0.5            K2      = -0.0186        K3      = 80                 
+K3B     = 0              W0      = 2.5E-6         NLX     = 1.74E-7            
+DVT0W   = 0              DVT1W   = 0              DVT2W   = -0.032             
+DVT0    = 2.2            DVT1    = 0.53           DVT2    = -0.032             
+VBM     = -5             U0      = 670            UA      = 2.25E-9            
+UB      = 5.87E-19       UC      = -4.65E-11      VSAT    = 8E4                
+A0      = 1              AGS     = 0              B0      = 0                  
+B1      = 0              KETA    = -0.047         A1      = 0                  
+A2      = 1              RDSW    = 0              PRWG    = 0                  
+PRWB    = 0              WR      = 1              WINT    = 0                  
+LINT    = 0              DWG     = 0              DWB     = 0                  
+VOFF    = -0.1           NFACTOR = 1              CIT     = 0                  
+CDSC    = 2.4E-4         CDSCD   = 0              CDSCB   = 0                  
+ETA0    = 0.08           ETAB    = -0.07          DSUB    = 0.56               
+PCLM    = 1.3            PDIBLC1 = 0.39           PDIBLC2 = 8.6E-3             
+PDIBLCB = 0              DROUT   = 0.56           PSCBE1  = 4.24E8             
+PSCBE2  = 5E-5           PVAG    = 0              DELTA   = 0.01               
+MOBMOD  = 1              PRT     = 0              UTE     = -1.5               
+KT1     = 0              KT1L    = 0              KT2     = 0                  
+UA1     = 4.31E-9        UB1     = -7.61E-18      UC1     = -5.6E-11           
+AT      = 3.3E4          NQSMOD  = 0              WL      = 0                  
+WLN     = 1              WW      = 0              WWN     = 1                  
+WWL     = 0              LL      = 0              LLN     = 1                  
+LW      = 0              LWN     = 1              LWL     = 0                  
+CAPMOD  = 1               )                                                    
*                                                                               
* DATE: Apr  1/10                                                               
* LOT: LOT1                  WAF: WAFER01                                       
* DIE: DIE1                  DEV: Device1                                       
* Temp= 27                                                                      
* W=    1.0 L=    1.0                                                           
.MODEL Device1 nmos (                              LEVEL   = 8                  
+TNOM    = 27             TOX     = 1E-8           XJ      = 1.5E-7             
+NCH     = 1.7E17         NSUB    = 6E16           VTH0    = 0.3586475          
+K1      = 0.7644152      K2      = -9.458551E-3   K3      = 80                 
+K3B     = 0              W0      = 2.5E-6         NLX     = 1.74E-7            
+DVT0W   = 0              DVT1W   = 0              DVT2W   = -0.032             
+DVT0    = 2.2            DVT1    = 0.53           DVT2    = -0.032             
+VBM     = -5             U0      = 380.6937031    UA      = 8.818112E-10       
+UB      = 3.326253E-19   UC      = -2.73184E-11   VSAT    = 1E5                
+A0      = 0.7232612      AGS     = 0              B0      = 0                  
+B1      = 0              KETA    = -0.047         A1      = 0                  
+A2      = 1              RDSW    = 0              PRWG    = 0                  
+PRWB    = 0              WR      = 1              WINT    = 0                  
+LINT    = 0              DWG     = 0              DWB     = 0                  
+VOFF    = -0.0914632     NFACTOR = 1.2336528      CIT     = 0                  
+CDSC    = 2.4E-4         CDSCD   = 0              CDSCB   = 0                  
+ETA0    = 0.08           ETAB    = -0.07          DSUB    = 0.56               
+PCLM    = 1.5946064      PDIBLC1 = 0.39           PDIBLC2 = 8.6E-3             
+PDIBLCB = 0              DROUT   = 1              PSCBE1  = 4.24E8             
+PSCBE2  = 5E-5           PVAG    = 0              DELTA   = 0.01               
+MOBMOD  = 1              PRT     = 0              UTE     = -1.5               
+KT1     = 0              KT1L    = 0              KT2     = 0                  
+UA1     = 4.31E-9        UB1     = -7.61E-18      UC1     = -5.6E-11           
+AT      = 3.3E4          NQSMOD  = 0              WL      = 0                  
+WLN     = 1              WW      = 0              WWN     = 1                  
+WWL     = 0              LL      = 0              LLN     = 1                  
+LW      = 0              LWN     = 1              LWL     = 0                  
+CAPMOD  = 1               )                                                    
*                                                                               
* DATE: Sep 14/13                                                               
* LOT: LOT1                  WAF: WAFER01                                       
* DIE: DIE1                  DEV: Device1                                       
* Temp= 27                                                                      
* W=    1.0 L=    1.0                                                           
.MODEL Device1 nmos (                              LEVEL   = 8                  
+TNOM    = 27             TOX     = 1E-8           XJ      = 1.5E-7             
+NCH     = 1.7E17         NSUB    = 6E16           VTH0    = 0.4118596          
+K1      = 0.7751651      K2      = -4.893092E-4   K3      = 80                 
+K3B     = 0              W0      = 2.5E-6         NLX     = 1.74E-7            
+DVT0W   = 0              DVT1W   = 0              DVT2W   = -0.032             
+DVT0    = 2.2            DVT1    = 0.53           DVT2    = -0.032             
+VBM     = -5             U0      = 500.9678441    UA      = 1.954178E-9        
+UB      = 1.329691E-19   UC      = 4.223366E-11   VSAT    = 1E5                
+A0      = 0.6648835      AGS     = 0              B0      = 0                  
+B1      = 0              KETA    = -0.047         A1      = 0                  
+A2      = 1              RDSW    = 0              PRWG    = 0                  
+PRWB    = 0              WR      = 1              WINT    = 0                  
+LINT    = 0              DWG     = 0              DWB     = 0                  
+VOFF    = -0.1491712     NFACTOR = 1.4271651      CIT     = 0                  
+CDSC    = 2.4E-4         CDSCD   = 0              CDSCB   = 0                  
+ETA0    = 0.08           ETAB    = -0.07          DSUB    = 0.56               
+PCLM    = 1.9286927      PDIBLC1 = 0.39           PDIBLC2 = 8.6E-3             
+PDIBLCB = 0              DROUT   = 1              PSCBE1  = 4.24E8             
+PSCBE2  = 5E-5           PVAG    = 0              DELTA   = 0.01               
+MOBMOD  = 1              PRT     = 0              UTE     = -1.5               
+KT1     = 0              KT1L    = 0              KT2     = 0                  
+UA1     = 4.31E-9        UB1     = -7.61E-18      UC1     = -5.6E-11           
+AT      = 3.3E4          NQSMOD  = 0              WL      = 0                  
+WLN     = 1              WW      = 0              WWN     = 1                  
+WWL     = 0              LL      = 0              LLN     = 1                  
+LW      = 0              LWN     = 1              LWL     = 0                  
+CAPMOD  = 1               )                                                    
*                                                                               
* DATE: Dec 13/15                                                               
* LOT: LOT1                  WAF: WAFER01                                       
* DIE: DIE1                  DEV: Device1                                       
* Temp= 27                                                                      
* W=    1.0 L=    1.0                                                           
.MODEL Device1 nmos (                              LEVEL   = 8                  
+TNOM    = 27             TOX     = 1E-8           XJ      = 1.5E-7             
+NCH     = 1.7E17         NSUB    = 6E16           VTH0    = 0.4118596          
+K1      = 0.7751651      K2      = -4.893092E-4   K3      = 80                 
+K3B     = 0              W0      = 2.5E-6         NLX     = 1.74E-7            
+DVT0W   = 0              DVT1W   = 0              DVT2W   = -0.032             
+DVT0    = 2.2            DVT1    = 0.53           DVT2    = -0.032             
+VBM     = -5             U0      = 500.9678441    UA      = 1.954178E-9        
+UB      = 1.329691E-19   UC      = 4.223366E-11   VSAT    = 1E5                
+A0      = 0.6648835      AGS     = 0              B0      = 0                  
+B1      = 0              KETA    = -0.047         A1      = 0                  
+A2      = 1              RDSW    = 0              PRWG    = 0                  
+PRWB    = 0              WR      = 1              WINT    = 0                  
+LINT    = 0              DWG     = 0              DWB     = 0                  
+VOFF    = -0.1491712     NFACTOR = 1.4271651      CIT     = 0                  
+CDSC    = 2.4E-4         CDSCD   = 0              CDSCB   = 0                  
+ETA0    = 0.08           ETAB    = -0.07          DSUB    = 0.56               
+PCLM    = 1.9286927      PDIBLC1 = 0.39           PDIBLC2 = 8.6E-3             
+PDIBLCB = 0              DROUT   = 1              PSCBE1  = 4.24E8             
+PSCBE2  = 5E-5           PVAG    = 0              DELTA   = 0.01               
+MOBMOD  = 1              PRT     = 0              UTE     = -1.5               
+KT1     = 0              KT1L    = 0              KT2     = 0                  
+UA1     = 4.31E-9        UB1     = -7.61E-18      UC1     = -5.6E-11           
+AT      = 3.3E4          NQSMOD  = 0              WL      = 0                  
+WLN     = 1              WW      = 0              WWN     = 1                  
+WWL     = 0              LL      = 0              LLN     = 1                  
+LW      = 0              LWN     = 1              LWL     = 0                  
+CAPMOD  = 1               )                                                    
*                                                                               
* DATE: Mar 26/17                                                               
* LOT: LOT1                  WAF: WAFER01                                       
* DIE: DIE1                  DEV: Device1                                       
* Temp= 27                                                                      
* W=    1.0 L=    1.0                                                           
.MODEL Device1 nmos (                              LEVEL   = 8                  
+TNOM    = 27             TOX     = 1E-8           XJ      = 1.5E-7             
+NCH     = 1.7E17         NSUB    = 6E16           VTH0    = 0.4128907          
+K1      = 0.7748354      K2      = -4.202714E-4   K3      = 80                 
+K3B     = 0              W0      = 2.5E-6         NLX     = 1.74E-7            
+DVT0W   = 0              DVT1W   = 0              DVT2W   = -0.032             
+DVT0    = 2.2            DVT1    = 0.53           DVT2    = -0.032             
+VBM     = -5             U0      = 501.3030965    UA      = 1.953721E-9        
+UB      = 1.335252E-19   UC      = 4.255474E-11   VSAT    = 1E5                
+A0      = 0.6663497      AGS     = 0              B0      = 0                  
+B1      = 0              KETA    = -0.047         A1      = 0                  
+A2      = 1              RDSW    = 0              PRWG    = 0                  
+PRWB    = 0              WR      = 1              WINT    = 0                  
+LINT    = 0              DWG     = 0              DWB     = 0                  
+VOFF    = -0.149156      NFACTOR = 1.4290083      CIT     = 0                  
+CDSC    = 2.4E-4         CDSCD   = 0              CDSCB   = 0                  
+ETA0    = 0.08           ETAB    = -0.07          DSUB    = 0.56               
+PCLM    = 1.93173        PDIBLC1 = 0.39           PDIBLC2 = 8.6E-3             
+PDIBLCB = 0              DROUT   = 1              PSCBE1  = 4.24E8             
+PSCBE2  = 5E-5           PVAG    = 0              DELTA   = 0.01               
+MOBMOD  = 1              PRT     = 0              UTE     = -1.5               
+KT1     = 0              KT1L    = 0              KT2     = 0                  
+UA1     = 4.31E-9        UB1     = -7.61E-18      UC1     = -5.6E-11           
+AT      = 3.3E4          NQSMOD  = 0              WL      = 0                  
+WLN     = 1              WW      = 0              WWN     = 1                  
+WWL     = 0              LL      = 0              LLN     = 1                  
+LW      = 0              LWN     = 1              LWL     = 0                  
+CAPMOD  = 1               )                                                    
*                                                                               
* DATE: Apr  7/17                                                               
* LOT: LOT1                  WAF: WAFER01                                       
* DIE: DIE1                  DEV: Device1                                       
* Temp= 27                                                                      
* W=    1.0 L=    1.0                                                           
.MODEL Device1 nmos (                              LEVEL   = 8                  
+TNOM    = 27             TOX     = 1E-8           XJ      = 1.5E-7             
+NCH     = 1.7E17         NSUB    = 6E16           VTH0    = 0.4128907          
+K1      = 0.7748354      K2      = -4.202714E-4   K3      = 80                 
+K3B     = 0              W0      = 2.5E-6         NLX     = 1.74E-7            
+DVT0W   = 0              DVT1W   = 0              DVT2W   = -0.032             
+DVT0    = 2.2            DVT1    = 0.53           DVT2    = -0.032             
+VBM     = -5             U0      = 501.3030965    UA      = 1.953721E-9        
+UB      = 1.335252E-19   UC      = 4.255474E-11   VSAT    = 1E5                
+A0      = 0.6663497      AGS     = 0              B0      = 0                  
+B1      = 0              KETA    = -0.047         A1      = 0                  
+A2      = 1              RDSW    = 0              PRWG    = 0                  
+PRWB    = 0              WR      = 1              WINT    = 0                  
+LINT    = 0              DWG     = 0              DWB     = 0                  
+VOFF    = -0.149156      NFACTOR = 1.4290083      CIT     = 0                  
+CDSC    = 2.4E-4         CDSCD   = 0              CDSCB   = 0                  
+ETA0    = 0.08           ETAB    = -0.07          DSUB    = 0.56               
+PCLM    = 1.93173        PDIBLC1 = 0.39           PDIBLC2 = 8.6E-3             
+PDIBLCB = 0              DROUT   = 1              PSCBE1  = 4.24E8             
+PSCBE2  = 5E-5           PVAG    = 0              DELTA   = 0.01               
+MOBMOD  = 1              PRT     = 0              UTE     = -1.5               
+KT1     = 0              KT1L    = 0              KT2     = 0                  
+UA1     = 4.31E-9        UB1     = -7.61E-18      UC1     = -5.6E-11           
+AT      = 3.3E4          NQSMOD  = 0              WL      = 0                  
+WLN     = 1              WW      = 0              WWN     = 1                  
+WWL     = 0              LL      = 0              LLN     = 1                  
+LW      = 0              LWN     = 1              LWL     = 0                  
+CAPMOD  = 1               )                                                    
*                                                                               
* DATE: Mar  3/18                                                               
* LOT: LOT1                  WAF: WAFER01                                       
* DIE: DIE1                  DEV: Device1                                       
* Temp= 27                                                                      
* W=    1.0 L=    1.0                                                           
.MODEL Device1 nmos (                              LEVEL   = 8                  
+TNOM    = 27             TOX     = 1E-8           XJ      = 1.5E-7             
+NCH     = 1.7E17         NSUB    = 6E16           VTH0    = 0.4128907          
+K1      = 0.7748354      K2      = -4.202714E-4   K3      = 80                 
+K3B     = 0              W0      = 2.5E-6         NLX     = 1.74E-7            
+DVT0W   = 0              DVT1W   = 0              DVT2W   = -0.032             
+DVT0    = 2.2            DVT1    = 0.53           DVT2    = -0.032             
+VBM     = -5             U0      = 501.3030965    UA      = 1.953721E-9        
+UB      = 1.335252E-19   UC      = 4.255474E-11   VSAT    = 1E5                
+A0      = 0.6663497      AGS     = 0              B0      = 0                  
+B1      = 0              KETA    = -0.047         A1      = 0                  
+A2      = 1              RDSW    = 0              PRWG    = 0                  
+PRWB    = 0              WR      = 1              WINT    = 0                  
+LINT    = 0              DWG     = 0              DWB     = 0                  
+VOFF    = -0.149156      NFACTOR = 1.4290083      CIT     = 0                  
+CDSC    = 2.4E-4         CDSCD   = 0              CDSCB   = 0                  
+ETA0    = 0.08           ETAB    = -0.07          DSUB    = 0.56               
+PCLM    = 1.93173        PDIBLC1 = 0.39           PDIBLC2 = 8.6E-3             
+PDIBLCB = 0              DROUT   = 1              PSCBE1  = 4.24E8             
+PSCBE2  = 5E-5           PVAG    = 0              DELTA   = 0.01               
+MOBMOD  = 1              PRT     = 0              UTE     = -1.5               
+KT1     = 0              KT1L    = 0              KT2     = 0                  
+UA1     = 4.31E-9        UB1     = -7.61E-18      UC1     = -5.6E-11           
+AT      = 3.3E4          NQSMOD  = 0              WL      = 0                  
+WLN     = 1              WW      = 0              WWN     = 1                  
+WWL     = 0              LL      = 0              LLN     = 1                  
+LW      = 0              LWN     = 1              LWL     = 0                  
+CAPMOD  = 1               )                                                    
*                                                                               
* DATE: Apr 17/18                                                               
* LOT: LOT1                  WAF: WAFER01                                       
* DIE: DIE1                  DEV: Device1                                       
* Temp= 27                                                                      
* W=    1.0 L=    1.0                                                           
.MODEL Device1 nmos (                              LEVEL   = 8                  
+TNOM    = 27             TOX     = 1E-8           XJ      = 1.5E-7             
+NCH     = 1.7E17         NSUB    = 6E16           VTH0    = 0.4128907          
+K1      = 0.7748354      K2      = -4.202714E-4   K3      = 80                 
+K3B     = 0              W0      = 2.5E-6         NLX     = 1.74E-7            
+DVT0W   = 0              DVT1W   = 0              DVT2W   = -0.032             
+DVT0    = 2.2            DVT1    = 0.53           DVT2    = -0.032             
+VBM     = -5             U0      = 501.3030965    UA      = 1.953721E-9        
+UB      = 1.335252E-19   UC      = 4.255474E-11   VSAT    = 1E5                
+A0      = 0.6663497      AGS     = 0              B0      = 0                  
+B1      = 0              KETA    = -0.047         A1      = 0                  
+A2      = 1              RDSW    = 0              PRWG    = 0                  
+PRWB    = 0              WR      = 1              WINT    = 0                  
+LINT    = 0              DWG     = 0              DWB     = 0                  
+VOFF    = -0.149156      NFACTOR = 1.4290083      CIT     = 0                  
+CDSC    = 2.4E-4         CDSCD   = 0              CDSCB   = 0                  
+ETA0    = 0.08           ETAB    = -0.07          DSUB    = 0.56               
+PCLM    = 1.93173        PDIBLC1 = 0.39           PDIBLC2 = 8.6E-3             
+PDIBLCB = 0              DROUT   = 1              PSCBE1  = 4.24E8             
+PSCBE2  = 5E-5           PVAG    = 0              DELTA   = 0.01               
+MOBMOD  = 1              PRT     = 0              UTE     = -1.5               
+KT1     = 0              KT1L    = 0              KT2     = 0                  
+UA1     = 4.31E-9        UB1     = -7.61E-18      UC1     = -5.6E-11           
+AT      = 3.3E4          NQSMOD  = 0              WL      = 0                  
+WLN     = 1              WW      = 0              WWN     = 1                  
+WWL     = 0              LL      = 0              LLN     = 1                  
+LW      = 0              LWN     = 1              LWL     = 0                  
+CAPMOD  = 1               )                                                    
*                                                                               
.ENDL                                                                           
